  
       XFOIL         Version 6.99
  
 Calculated polar for: N-24                                            
  
 1 1 Reynolds number fixed          Mach number fixed         
  
 xtrf =   1.000 (top)        1.000 (bottom)  
 Mach =   0.000     Re =     1.354 e 6     Ncrit =   9.000
  
   alpha    CL        CD       CDp       CM     Top_Xtr  Bot_Xtr
  ------ -------- --------- --------- -------- -------- --------
 -10.000  -0.4624   0.01350   0.00778  -0.0700   0.7209   0.0286
  -9.900  -0.4509   0.01338   0.00764  -0.0699   0.7180   0.0286
  -9.800  -0.4392   0.01328   0.00751  -0.0699   0.7151   0.0287
  -9.700  -0.4276   0.01316   0.00737  -0.0698   0.7122   0.0287
  -9.600  -0.4161   0.01301   0.00719  -0.0697   0.7096   0.0288
  -9.500  -0.4049   0.01279   0.00695  -0.0697   0.7072   0.0289
  -9.400  -0.3937   0.01257   0.00672  -0.0696   0.7046   0.0290
  -9.300  -0.3825   0.01237   0.00649  -0.0695   0.7017   0.0291
  -9.200  -0.3710   0.01220   0.00630  -0.0694   0.6987   0.0292
  -9.100  -0.3594   0.01205   0.00613  -0.0694   0.6956   0.0294
  -9.000  -0.3478   0.01192   0.00596  -0.0694   0.6924   0.0295
  -8.900  -0.3361   0.01178   0.00581  -0.0693   0.6899   0.0296
  -8.800  -0.3244   0.01165   0.00567  -0.0693   0.6872   0.0298
  -8.700  -0.3127   0.01153   0.00554  -0.0693   0.6842   0.0299
  -8.600  -0.3009   0.01142   0.00541  -0.0693   0.6810   0.0300
  -8.500  -0.2890   0.01133   0.00529  -0.0693   0.6775   0.0301
  -8.400  -0.2771   0.01124   0.00518  -0.0693   0.6737   0.0302
  -8.300  -0.2652   0.01114   0.00507  -0.0693   0.6706   0.0304
  -8.200  -0.2533   0.01104   0.00496  -0.0693   0.6669   0.0305
  -8.100  -0.2414   0.01096   0.00485  -0.0694   0.6629   0.0307
  -8.000  -0.2294   0.01088   0.00475  -0.0694   0.6585   0.0308
  -7.900  -0.2174   0.01082   0.00465  -0.0694   0.6541   0.0310
  -7.800  -0.2054   0.01073   0.00455  -0.0695   0.6506   0.0311
  -7.700  -0.1934   0.01065   0.00446  -0.0695   0.6467   0.0312
  -7.600  -0.1814   0.01059   0.00437  -0.0695   0.6427   0.0314
  -7.500  -0.1693   0.01053   0.00428  -0.0696   0.6386   0.0316
  -7.400  -0.1573   0.01047   0.00420  -0.0697   0.6348   0.0318
  -7.300  -0.1452   0.01040   0.00412  -0.0697   0.6315   0.0319
  -7.200  -0.1331   0.01034   0.00404  -0.0698   0.6276   0.0320
  -7.100  -0.1211   0.01028   0.00397  -0.0698   0.6235   0.0322
  -7.000  -0.1089   0.01024   0.00389  -0.0699   0.6192   0.0323
  -6.900  -0.0968   0.01019   0.00383  -0.0700   0.6156   0.0325
  -6.800  -0.0847   0.01014   0.00376  -0.0700   0.6120   0.0326
  -6.600  -0.0606   0.01001   0.00359  -0.0702   0.6041   0.0331
  -6.500  -0.0485   0.00996   0.00351  -0.0703   0.5999   0.0334
  -6.400  -0.0364   0.00989   0.00343  -0.0703   0.5966   0.0339
  -6.300  -0.0244   0.00982   0.00336  -0.0704   0.5933   0.0343
  -6.200  -0.0123   0.00977   0.00329  -0.0705   0.5896   0.0347
  -6.100  -0.0002   0.00972   0.00323  -0.0706   0.5858   0.0351
  -6.000   0.0120   0.00969   0.00317  -0.0707   0.5819   0.0354
  -5.900   0.0241   0.00965   0.00312  -0.0708   0.5786   0.0358
  -5.800   0.0363   0.00960   0.00306  -0.0709   0.5758   0.0363
  -5.700   0.0484   0.00956   0.00302  -0.0710   0.5728   0.0367
  -5.500   0.0727   0.00948   0.00291  -0.0712   0.5668   0.0385
  -5.400   0.0847   0.00943   0.00285  -0.0713   0.5638   0.0402
  -5.300   0.0967   0.00935   0.00279  -0.0714   0.5609   0.0453
  -5.200   0.1086   0.00925   0.00278  -0.0715   0.5591   0.0617
  -5.100   0.1207   0.00922   0.00277  -0.0716   0.5571   0.0655
  -5.000   0.1330   0.00922   0.00277  -0.0718   0.5548   0.0685
  -4.900   0.1453   0.00922   0.00277  -0.0719   0.5525   0.0699
  -4.800   0.1574   0.00919   0.00275  -0.0720   0.5501   0.0717
  -4.700   0.1696   0.00919   0.00274  -0.0722   0.5476   0.0731
  -4.600   0.1819   0.00919   0.00273  -0.0723   0.5450   0.0744
  -4.500   0.1941   0.00920   0.00273  -0.0725   0.5423   0.0754
  -4.400   0.2063   0.00919   0.00272  -0.0726   0.5406   0.0761
  -4.300   0.2186   0.00919   0.00271  -0.0727   0.5387   0.0767
  -4.200   0.2308   0.00916   0.00268  -0.0729   0.5366   0.0779
  -4.100   0.2429   0.00913   0.00265  -0.0730   0.5344   0.0790
  -4.000   0.2550   0.00911   0.00263  -0.0732   0.5322   0.0800
  -3.900   0.2672   0.00910   0.00261  -0.0733   0.5299   0.0808
  -3.800   0.2794   0.00910   0.00259  -0.0735   0.5276   0.0816
  -3.700   0.2915   0.00910   0.00258  -0.0736   0.5252   0.0823
  -3.600   0.3037   0.00909   0.00257  -0.0738   0.5232   0.0831
  -3.500   0.3159   0.00907   0.00255  -0.0739   0.5219   0.0837
  -3.400   0.3281   0.00906   0.00254  -0.0741   0.5204   0.0843
  -3.300   0.3403   0.00905   0.00253  -0.0743   0.5187   0.0848
  -3.100   0.3646   0.00902   0.00249  -0.0746   0.5150   0.0864
  -3.000   0.3768   0.00901   0.00248  -0.0748   0.5130   0.0876
  -2.900   0.3889   0.00900   0.00246  -0.0749   0.5109   0.0889
  -2.800   0.4010   0.00899   0.00245  -0.0751   0.5086   0.0898
  -2.700   0.4131   0.00900   0.00245  -0.0753   0.5061   0.0908
  -2.600   0.4252   0.00899   0.00244  -0.0755   0.5042   0.0917
  -2.500   0.4374   0.00897   0.00243  -0.0756   0.5028   0.0926
  -2.400   0.4495   0.00895   0.00242  -0.0758   0.5011   0.0936
  -2.100   0.4859   0.00891   0.00240  -0.0764   0.4950   0.1004
  -2.000   0.4979   0.00890   0.00239  -0.0765   0.4929   0.1044
  -1.900   0.5098   0.00885   0.00240  -0.0767   0.4907   0.1197
  -1.800   0.5217   0.00882   0.00241  -0.0769   0.4883   0.1367
  -1.700   0.5337   0.00880   0.00242  -0.0771   0.4860   0.1473
  -1.600   0.5457   0.00878   0.00242  -0.0773   0.4847   0.1561
  -1.500   0.5578   0.00874   0.00242  -0.0775   0.4831   0.1660
  -1.300   0.5818   0.00870   0.00243  -0.0779   0.4790   0.1837
  -1.200   0.5939   0.00869   0.00244  -0.0781   0.4767   0.1915
  -1.100   0.6058   0.00867   0.00245  -0.0783   0.4743   0.2030
  -1.000   0.6177   0.00867   0.00247  -0.0785   0.4716   0.2138
  -0.900   0.6296   0.00867   0.00249  -0.0787   0.4685   0.2274
  -0.800   0.6415   0.00864   0.00250  -0.0789   0.4666   0.2427
  -0.700   0.6534   0.00860   0.00251  -0.0791   0.4644   0.2611
  -0.600   0.6653   0.00856   0.00253  -0.0793   0.4617   0.2814
  -0.500   0.6771   0.00853   0.00255  -0.0795   0.4587   0.3024
  -0.400   0.6888   0.00851   0.00257  -0.0797   0.4553   0.3265
  -0.300   0.7005   0.00850   0.00260  -0.0799   0.4518   0.3464
  -0.200   0.7122   0.00848   0.00262  -0.0801   0.4489   0.3682
  -0.100   0.7241   0.00844   0.00265  -0.0803   0.4463   0.3916
   0.000   0.7358   0.00841   0.00267  -0.0805   0.4430   0.4172
   0.100   0.7473   0.00837   0.00270  -0.0807   0.4392   0.4468
   0.200   0.7587   0.00835   0.00274  -0.0809   0.4351   0.4791
   0.300   0.7701   0.00831   0.00278  -0.0810   0.4313   0.5176
   0.400   0.7813   0.00822   0.00281  -0.0811   0.4279   0.5661
   0.500   0.7923   0.00813   0.00286  -0.0812   0.4234   0.6214
   0.600   0.8031   0.00809   0.00291  -0.0813   0.4183   0.6693
   0.700   0.8138   0.00804   0.00296  -0.0813   0.4135   0.7122
   0.800   0.8237   0.00791   0.00299  -0.0811   0.4086   0.7730
   1.500   0.9409   0.00832   0.00357  -0.0906   0.3574   1.0002
   1.600   0.9518   0.00841   0.00363  -0.0907   0.3528   1.0002
   1.700   0.9625   0.00852   0.00369  -0.0907   0.3482   1.0002
   1.800   0.9733   0.00860   0.00375  -0.0908   0.3446   1.0002
   1.900   0.9843   0.00866   0.00379  -0.0909   0.3418   1.0002
   2.000   0.9952   0.00873   0.00385  -0.0909   0.3388   1.0002
   2.100   1.0060   0.00882   0.00391  -0.0910   0.3356   1.0002
   2.200   1.0166   0.00891   0.00397  -0.0910   0.3322   1.0002
   2.300   1.0272   0.00901   0.00404  -0.0911   0.3284   1.0002
   2.400   1.0381   0.00907   0.00409  -0.0911   0.3265   1.0002
   2.500   1.0490   0.00913   0.00414  -0.0912   0.3242   1.0002
   2.600   1.0597   0.00921   0.00420  -0.0913   0.3216   1.0002
   2.700   1.0703   0.00929   0.00427  -0.0913   0.3188   1.0002
   2.800   1.0808   0.00939   0.00434  -0.0913   0.3160   1.0002
   2.900   1.0911   0.00949   0.00441  -0.0913   0.3129   1.0002
   3.000   1.1017   0.00958   0.00448  -0.0914   0.3105   1.0002
   3.100   1.1126   0.00962   0.00453  -0.0915   0.3094   1.0002
   3.200   1.1234   0.00968   0.00458  -0.0915   0.3082   1.0002
   3.300   1.1341   0.00974   0.00463  -0.0916   0.3069   1.0002
   3.400   1.1448   0.00980   0.00469  -0.0917   0.3055   1.0002
   3.500   1.1553   0.00988   0.00476  -0.0917   0.3040   1.0002
   3.600   1.1658   0.00995   0.00482  -0.0917   0.3024   1.0002
   3.700   1.1761   0.01004   0.00489  -0.0917   0.3007   1.0002
   3.800   1.1863   0.01013   0.00497  -0.0917   0.2987   1.0002
   3.900   1.1963   0.01023   0.00505  -0.0917   0.2964   1.0002
   4.000   1.2062   0.01034   0.00514  -0.0917   0.2940   1.0002
   4.100   1.2167   0.01041   0.00521  -0.0917   0.2928   1.0002
   4.200   1.2274   0.01046   0.00526  -0.0918   0.2919   1.0002
   4.300   1.2379   0.01051   0.00532  -0.0918   0.2909   1.0002
   4.400   1.2483   0.01058   0.00538  -0.0919   0.2898   1.0002
   4.500   1.2586   0.01064   0.00545  -0.0919   0.2887   1.0002
   4.600   1.2689   0.01072   0.00552  -0.0919   0.2873   1.0002
   4.700   1.2790   0.01080   0.00559  -0.0919   0.2858   1.0002
   4.800   1.2889   0.01089   0.00568  -0.0919   0.2842   1.0002
   4.900   1.2987   0.01099   0.00576  -0.0919   0.2825   1.0002
   5.000   1.3083   0.01109   0.00585  -0.0918   0.2808   1.0002
   5.100   1.3179   0.01120   0.00595  -0.0917   0.2790   1.0002
   5.200   1.3273   0.01131   0.00605  -0.0916   0.2772   1.0002
   5.300   1.3369   0.01141   0.00615  -0.0916   0.2759   1.0002
   5.400   1.3471   0.01147   0.00621  -0.0916   0.2753   1.0002
   5.500   1.3573   0.01153   0.00629  -0.0916   0.2747   1.0002
   5.600   1.3674   0.01160   0.00636  -0.0916   0.2739   1.0002
   5.700   1.3773   0.01167   0.00644  -0.0916   0.2730   1.0002
   5.800   1.3871   0.01175   0.00652  -0.0916   0.2720   1.0002
   5.900   1.3967   0.01183   0.00660  -0.0916   0.2709   1.0002
   6.000   1.4062   0.01192   0.00669  -0.0915   0.2698   1.0002
   6.100   1.4156   0.01202   0.00679  -0.0914   0.2686   1.0002
   6.200   1.4247   0.01212   0.00689  -0.0913   0.2674   1.0002
   6.300   1.4336   0.01224   0.00700  -0.0911   0.2661   1.0002
   6.400   1.4422   0.01236   0.00711  -0.0909   0.2647   1.0002
   6.500   1.4507   0.01249   0.00723  -0.0907   0.2632   1.0002
   6.600   1.4588   0.01263   0.00737  -0.0904   0.2616   1.0002
   6.700   1.4665   0.01278   0.00752  -0.0901   0.2599   1.0002
   6.800   1.4748   0.01291   0.00765  -0.0899   0.2588   1.0002
   6.900   1.4833   0.01300   0.00775  -0.0897   0.2583   1.0002
   7.000   1.4910   0.01310   0.00787  -0.0893   0.2575   1.0002
   7.100   1.4982   0.01322   0.00800  -0.0889   0.2567   1.0002
   7.200   1.5054   0.01334   0.00813  -0.0884   0.2557   1.0002
   7.300   1.5127   0.01348   0.00827  -0.0880   0.2546   1.0002
   7.400   1.5201   0.01362   0.00841  -0.0877   0.2534   1.0002
   7.500   1.5273   0.01377   0.00857  -0.0873   0.2521   1.0002
   7.600   1.5344   0.01393   0.00874  -0.0869   0.2508   1.0002
   7.700   1.5414   0.01411   0.00891  -0.0865   0.2494   1.0002
   7.800   1.5483   0.01430   0.00909  -0.0861   0.2478   1.0002
   7.900   1.5550   0.01450   0.00929  -0.0857   0.2460   1.0002
   8.000   1.5611   0.01474   0.00952  -0.0852   0.2438   1.0002
   8.100   1.5685   0.01492   0.00970  -0.0850   0.2424   1.0002
   8.200   1.5771   0.01505   0.00984  -0.0848   0.2413   1.0002
   8.300   1.5853   0.01519   0.01000  -0.0847   0.2398   1.0002
   8.400   1.5931   0.01536   0.01017  -0.0845   0.2381   1.0002
   8.500   1.6004   0.01556   0.01036  -0.0843   0.2360   1.0002
   8.600   1.6070   0.01580   0.01059  -0.0839   0.2337   1.0002
   8.700   1.6131   0.01606   0.01084  -0.0835   0.2314   1.0002
   8.800   1.6191   0.01634   0.01111  -0.0831   0.2289   1.0002
   8.900   1.6257   0.01659   0.01136  -0.0828   0.2268   1.0002
   9.000   1.6336   0.01677   0.01155  -0.0827   0.2254   1.0002
   9.100   1.6409   0.01697   0.01176  -0.0825   0.2237   1.0002
   9.200   1.6479   0.01721   0.01200  -0.0823   0.2217   1.0002
   9.300   1.6544   0.01747   0.01226  -0.0820   0.2194   1.0002
   9.400   1.6604   0.01777   0.01255  -0.0816   0.2170   1.0002
   9.500   1.6656   0.01812   0.01288  -0.0812   0.2143   1.0002
   9.600   1.6709   0.01847   0.01322  -0.0808   0.2117   1.0002
   9.700   1.6780   0.01871   0.01347  -0.0807   0.2101   1.0002
   9.800   1.6845   0.01899   0.01376  -0.0804   0.2076   1.0002
   9.900   1.6904   0.01930   0.01407  -0.0801   0.2049   1.0002
  10.000   1.6947   0.01973   0.01447  -0.0797   0.2016   1.0002
  10.100   1.6981   0.02021   0.01493  -0.0791   0.1980   1.0002
  10.200   1.7039   0.02055   0.01527  -0.0789   0.1956   1.0002
  10.300   1.7095   0.02090   0.01562  -0.0786   0.1926   1.0002
  10.400   1.7137   0.02135   0.01607  -0.0782   0.1892   1.0002
  10.500   1.7166   0.02190   0.01659  -0.0776   0.1857   1.0002
  10.600   1.7204   0.02238   0.01706  -0.0772   0.1825   1.0002
  10.700   1.7252   0.02279   0.01748  -0.0769   0.1797   1.0002
  10.800   1.7287   0.02331   0.01799  -0.0765   0.1763   1.0002
  10.900   1.7307   0.02393   0.01859  -0.0759   0.1724   1.0002
  11.000   1.7331   0.02453   0.01917  -0.0754   0.1688   1.0002
  11.100   1.7363   0.02509   0.01972  -0.0750   0.1653   1.0002
  11.200   1.7379   0.02577   0.02038  -0.0744   0.1612   1.0002
  11.400   1.7402   0.02721   0.02179  -0.0733   0.1532   1.0002
  11.500   1.7416   0.02792   0.02249  -0.0728   0.1495   1.0002
  11.600   1.7414   0.02874   0.02330  -0.0722   0.1456   1.0002
  11.700   1.7426   0.02950   0.02404  -0.0717   0.1426   1.0002
  11.800   1.7449   0.03016   0.02471  -0.0714   0.1399   1.0002
  11.900   1.7468   0.03088   0.02542  -0.0710   0.1372   1.0002
  12.000   1.7473   0.03173   0.02626  -0.0705   0.1347   1.0002
  12.100   1.7480   0.03256   0.02709  -0.0701   0.1321   1.0002
  12.200   1.7509   0.03322   0.02775  -0.0698   0.1302   1.0002
  12.300   1.7537   0.03389   0.02844  -0.0696   0.1287   1.0002
  12.400   1.7559   0.03463   0.02918  -0.0693   0.1272   1.0002
  12.500   1.7581   0.03537   0.02993  -0.0691   0.1256   1.0002
  12.600   1.7598   0.03615   0.03072  -0.0688   0.1240   1.0002
  12.700   1.7604   0.03705   0.03162  -0.0685   0.1224   1.0002
  12.800   1.7613   0.03794   0.03251  -0.0682   0.1206   1.0002
  12.900   1.7634   0.03871   0.03330  -0.0680   0.1191   1.0002
  13.000   1.7665   0.03941   0.03401  -0.0679   0.1183   1.0002
  13.100   1.7691   0.04017   0.03479  -0.0677   0.1174   1.0002
  13.200   1.7717   0.04092   0.03555  -0.0676   0.1165   1.0002
  13.300   1.7742   0.04168   0.03632  -0.0675   0.1155   1.0002
  13.400   1.7756   0.04254   0.03721  -0.0673   0.1145   1.0002
  13.500   1.7764   0.04348   0.03816  -0.0671   0.1134   1.0002
  13.600   1.7775   0.04439   0.03908  -0.0669   0.1123   1.0002
  13.700   1.7780   0.04536   0.04006  -0.0667   0.1111   1.0002
  13.800   1.7776   0.04646   0.04116  -0.0665   0.1098   1.0002
  13.900   1.7780   0.04746   0.04218  -0.0664   0.1085   1.0002
  14.000   1.7798   0.04832   0.04306  -0.0663   0.1075   1.0002
  14.100   1.7822   0.04915   0.04391  -0.0663   0.1070   1.0002
  14.200   1.7839   0.05005   0.04483  -0.0662   0.1063   1.0002
  14.300   1.7858   0.05093   0.04573  -0.0662   0.1055   1.0002
  14.400   1.7875   0.05181   0.04663  -0.0661   0.1046   1.0002
  14.500   1.7881   0.05283   0.04767  -0.0661   0.1037   1.0002
  14.600   1.7879   0.05393   0.04878  -0.0660   0.1028   1.0002
  14.700   1.7881   0.05499   0.04986  -0.0659   0.1019   1.0002
  14.800   1.7880   0.05608   0.05096  -0.0658   0.1009   1.0002
  14.900   1.7864   0.05738   0.05227  -0.0658   0.0999   1.0002
  15.000   1.7854   0.05860   0.05351  -0.0657   0.0989   1.0002
