  
       XFOIL         Version 6.99
  
 Calculated polar for: NACA 0012 AIRFOILS                              
  
 1 1 Reynolds number fixed          Mach number fixed         
  
 xtrf =   1.000 (top)        1.000 (bottom)  
 Mach =   0.000     Re =     0.208 e 6     Ncrit =   9.000
  
   alpha    CL        CD       CDp       CM     Top_Xtr  Bot_Xtr
  ------ -------- --------- --------- -------- -------- --------
 -10.000  -1.0074   0.02885   0.02127  -0.0167   1.0000   0.0500
  -9.900  -0.9998   0.02842   0.02082  -0.0163   1.0000   0.0508
  -9.800  -0.9923   0.02799   0.02034  -0.0158   1.0000   0.0516
  -9.700  -0.9846   0.02753   0.01982  -0.0154   1.0000   0.0525
  -9.600  -0.9769   0.02707   0.01929  -0.0149   1.0000   0.0533
  -9.500  -0.9691   0.02663   0.01877  -0.0144   1.0000   0.0541
  -9.400  -0.9613   0.02626   0.01830  -0.0138   1.0000   0.0548
  -9.300  -0.9535   0.02555   0.01755  -0.0134   1.0000   0.0558
  -9.200  -0.9456   0.02488   0.01693  -0.0131   1.0000   0.0569
  -9.100  -0.9377   0.02449   0.01656  -0.0127   1.0000   0.0580
  -9.000  -0.9297   0.02416   0.01624  -0.0123   1.0000   0.0591
  -8.900  -0.9216   0.02383   0.01590  -0.0119   1.0000   0.0603
  -8.800  -0.9135   0.02350   0.01553  -0.0114   1.0000   0.0616
  -8.700  -0.9053   0.02318   0.01513  -0.0109   1.0000   0.0629
  -8.600  -0.8969   0.02289   0.01477  -0.0104   1.0000   0.0640
  -8.500  -0.8892   0.02227   0.01416  -0.0099   1.0000   0.0654
  -8.400  -0.8818   0.02176   0.01369  -0.0094   1.0000   0.0668
  -8.300  -0.8740   0.02143   0.01340  -0.0089   1.0000   0.0683
  -8.200  -0.8660   0.02115   0.01312  -0.0085   1.0000   0.0700
  -8.100  -0.8579   0.02088   0.01282  -0.0080   1.0000   0.0718
  -8.000  -0.8496   0.02064   0.01252  -0.0075   1.0000   0.0736
  -7.900  -0.8414   0.02034   0.01217  -0.0069   1.0000   0.0753
  -7.800  -0.8350   0.01976   0.01168  -0.0063   1.0000   0.0773
  -7.700  -0.8274   0.01946   0.01139  -0.0057   1.0000   0.0793
  -7.600  -0.8195   0.01920   0.01114  -0.0051   1.0000   0.0816
  -7.500  -0.8114   0.01897   0.01088  -0.0046   1.0000   0.0841
  -7.400  -0.8029   0.01880   0.01063  -0.0041   1.0000   0.0864
  -7.300  -0.7969   0.01828   0.01020  -0.0033   1.0000   0.0892
  -7.200  -0.7894   0.01800   0.00995  -0.0027   1.0000   0.0920
  -7.100  -0.7815   0.01778   0.00972  -0.0021   1.0000   0.0952
  -7.000  -0.7731   0.01760   0.00949  -0.0016   1.0000   0.0984
  -6.900  -0.7667   0.01718   0.00914  -0.0008   1.0000   0.1020
  -6.800  -0.7592   0.01692   0.00891  -0.0002   1.0000   0.1059
  -6.700  -0.7510   0.01673   0.00870   0.0003   1.0000   0.1103
  -6.600  -0.7438   0.01642   0.00842   0.0010   1.0000   0.1148
  -6.500  -0.7365   0.01615   0.00820   0.0016   1.0000   0.1196
  -6.400  -0.7282   0.01597   0.00799   0.0021   1.0000   0.1254
  -6.300  -0.7214   0.01565   0.00775   0.0028   1.0000   0.1311
  -6.200  -0.7134   0.01544   0.00756   0.0034   1.0000   0.1380
  -6.100  -0.7061   0.01517   0.00734   0.0040   1.0000   0.1449
  -6.000  -0.6982   0.01496   0.00716   0.0046   1.0000   0.1531
  -5.900  -0.6909   0.01470   0.00696   0.0052   1.0000   0.1614
  -5.800  -0.6829   0.01450   0.00679   0.0058   1.0000   0.1712
  -5.700  -0.6754   0.01426   0.00662   0.0064   1.0000   0.1813
  -5.600  -0.6678   0.01403   0.00646   0.0069   1.0000   0.1920
  -5.500  -0.6598   0.01384   0.00631   0.0075   1.0000   0.2037
  -5.300  -0.6441   0.01344   0.00604   0.0085   1.0000   0.2288
  -5.200  -0.6362   0.01325   0.00592   0.0091   1.0000   0.2419
  -5.100  -0.6282   0.01307   0.00581   0.0096   1.0000   0.2554
  -5.000  -0.6201   0.01291   0.00570   0.0101   1.0000   0.2691
  -4.900  -0.6119   0.01275   0.00560   0.0106   1.0000   0.2831
  -4.800  -0.6036   0.01260   0.00550   0.0110   1.0000   0.2974
  -4.600  -0.5871   0.01232   0.00534   0.0120   1.0000   0.3259
  -4.500  -0.5787   0.01218   0.00527   0.0124   1.0000   0.3398
  -4.400  -0.5703   0.01206   0.00520   0.0129   1.0000   0.3538
  -4.300  -0.5618   0.01194   0.00514   0.0133   1.0000   0.3679
  -4.200  -0.5532   0.01183   0.00508   0.0137   1.0000   0.3819
  -4.100  -0.5446   0.01173   0.00503   0.0141   1.0000   0.3960
  -4.000  -0.5359   0.01164   0.00498   0.0145   1.0000   0.4102
  -3.900  -0.5272   0.01154   0.00494   0.0149   1.0000   0.4241
  -3.800  -0.5184   0.01144   0.00491   0.0153   1.0000   0.4379
  -3.700  -0.5095   0.01136   0.00488   0.0157   1.0000   0.4516
  -3.600  -0.5005   0.01128   0.00485   0.0160   1.0000   0.4653
  -3.500  -0.4915   0.01121   0.00483   0.0164   1.0000   0.4792
  -3.400  -0.4824   0.01115   0.00481   0.0167   1.0000   0.4932
  -3.300  -0.4734   0.01108   0.00480   0.0170   1.0000   0.5070
  -3.200  -0.4643   0.01101   0.00480   0.0173   1.0000   0.5205
  -3.100  -0.4552   0.01096   0.00480   0.0177   1.0000   0.5340
  -3.000  -0.4461   0.01091   0.00481   0.0180   1.0000   0.5475
  -2.900  -0.4370   0.01087   0.00481   0.0183   1.0000   0.5612
  -2.700  -0.4188   0.01079   0.00485   0.0189   1.0000   0.5885
  -2.500  -0.3845   0.01070   0.00488   0.0163   0.9952   0.6208
  -2.400  -0.3673   0.01065   0.00490   0.0151   0.9929   0.6366
  -2.300  -0.3511   0.01059   0.00491   0.0140   0.9897   0.6516
  -2.200  -0.3342   0.01055   0.00492   0.0129   0.9868   0.6668
  -2.100  -0.3167   0.01051   0.00494   0.0116   0.9843   0.6817
  -2.000  -0.2998   0.01046   0.00495   0.0105   0.9816   0.6963
  -1.900  -0.2849   0.01041   0.00494   0.0098   0.9776   0.7101
  -1.800  -0.2683   0.01037   0.00494   0.0088   0.9744   0.7242
  -1.700  -0.2508   0.01032   0.00496   0.0076   0.9719   0.7374
  -1.600  -0.2326   0.01029   0.00498   0.0063   0.9700   0.7504
  -1.500  -0.2199   0.01024   0.00497   0.0061   0.9649   0.7625
  -1.400  -0.2037   0.01020   0.00496   0.0052   0.9614   0.7752
  -1.300  -0.1863   0.01016   0.00498   0.0042   0.9588   0.7867
  -1.200  -0.1680   0.01013   0.00498   0.0029   0.9568   0.7978
  -1.100  -0.1532   0.01009   0.00497   0.0024   0.9528   0.8092
  -1.000  -0.1393   0.01006   0.00499   0.0021   0.9482   0.8188
  -0.900  -0.1234   0.01002   0.00497   0.0014   0.9447   0.8288
  -0.800  -0.1068   0.00999   0.00496   0.0006   0.9419   0.8386
  -0.700  -0.0928   0.00997   0.00497   0.0004   0.9375   0.8470
  -0.600  -0.0806   0.00995   0.00496   0.0005   0.9317   0.8566
  -0.500  -0.0655   0.00993   0.00496   0.0000   0.9278   0.8638
  -0.400  -0.0501   0.00989   0.00494  -0.0005   0.9244   0.8723
  -0.300  -0.0394   0.00990   0.00496   0.0000   0.9171   0.8794
  -0.200  -0.0258   0.00988   0.00495  -0.0001   0.9119   0.8867
  -0.100  -0.0118   0.00986   0.00493  -0.0003   0.9074   0.8936
   0.000   0.0000   0.00988   0.00496   0.0000   0.8996   0.8996
   0.100   0.0118   0.00986   0.00493   0.0003   0.8936   0.9074
   0.200   0.0258   0.00988   0.00495   0.0001   0.8867   0.9119
   0.300   0.0394   0.00990   0.00496  -0.0000   0.8794   0.9171
   0.400   0.0501   0.00989   0.00494   0.0005   0.8723   0.9244
   0.500   0.0655   0.00992   0.00496  -0.0000   0.8639   0.9278
   0.600   0.0806   0.00994   0.00496  -0.0005   0.8567   0.9317
   0.700   0.0929   0.00997   0.00497  -0.0004   0.8470   0.9375
   0.800   0.1068   0.00999   0.00496  -0.0006   0.8385   0.9419
   0.900   0.1234   0.01002   0.00497  -0.0014   0.8288   0.9447
   1.000   0.1393   0.01006   0.00499  -0.0021   0.8188   0.9482
   1.100   0.1533   0.01009   0.00497  -0.0024   0.8092   0.9528
   1.200   0.1680   0.01013   0.00498  -0.0029   0.7977   0.9568
   1.300   0.1864   0.01016   0.00498  -0.0042   0.7866   0.9588
   1.400   0.2038   0.01020   0.00496  -0.0053   0.7752   0.9614
   1.500   0.2199   0.01024   0.00497  -0.0061   0.7625   0.9649
   1.600   0.2325   0.01029   0.00498  -0.0063   0.7504   0.9700
   1.700   0.2508   0.01032   0.00496  -0.0076   0.7373   0.9720
   1.800   0.2683   0.01037   0.00494  -0.0088   0.7242   0.9744
   1.900   0.2848   0.01041   0.00494  -0.0098   0.7101   0.9776
   2.000   0.2998   0.01046   0.00495  -0.0105   0.6962   0.9817
   2.100   0.3167   0.01051   0.00494  -0.0116   0.6817   0.9843
   2.200   0.3342   0.01054   0.00492  -0.0129   0.6668   0.9868
   2.300   0.3511   0.01059   0.00490  -0.0140   0.6517   0.9898
   2.400   0.3672   0.01065   0.00490  -0.0151   0.6366   0.9929
   2.500   0.3845   0.01069   0.00488  -0.0163   0.6208   0.9953
   2.600   0.4019   0.01074   0.00486  -0.0177   0.6047   0.9976
   2.700   0.4188   0.01079   0.00485  -0.0189   0.5886   1.0000
   2.900   0.4369   0.01087   0.00481  -0.0183   0.5613   1.0000
   3.000   0.4461   0.01091   0.00480  -0.0180   0.5475   1.0000
   3.100   0.4552   0.01096   0.00480  -0.0177   0.5340   1.0000
   3.200   0.4642   0.01101   0.00480  -0.0173   0.5206   1.0000
   3.300   0.4733   0.01108   0.00480  -0.0170   0.5071   1.0000
   3.400   0.4823   0.01114   0.00481  -0.0167   0.4932   1.0000
   3.500   0.4914   0.01121   0.00483  -0.0164   0.4792   1.0000
   3.600   0.5005   0.01128   0.00485  -0.0160   0.4654   1.0000
   3.700   0.5094   0.01135   0.00488  -0.0157   0.4517   1.0000
   3.800   0.5183   0.01144   0.00491  -0.0153   0.4380   1.0000
   3.900   0.5271   0.01153   0.00494  -0.0149   0.4243   1.0000
   4.000   0.5358   0.01163   0.00498  -0.0145   0.4103   1.0000
   4.100   0.5445   0.01173   0.00502  -0.0141   0.3960   1.0000
   4.200   0.5532   0.01183   0.00508  -0.0137   0.3820   1.0000
   4.300   0.5617   0.01194   0.00514  -0.0133   0.3679   1.0000
   4.400   0.5702   0.01206   0.00520  -0.0129   0.3539   1.0000
   4.500   0.5787   0.01218   0.00527  -0.0124   0.3398   1.0000
   4.600   0.5870   0.01232   0.00534  -0.0120   0.3259   1.0000
   4.700   0.5952   0.01247   0.00542  -0.0115   0.3118   1.0000
   4.800   0.6036   0.01260   0.00550  -0.0110   0.2974   1.0000
   4.900   0.6118   0.01275   0.00559  -0.0106   0.2831   1.0000
   5.000   0.6200   0.01290   0.00569  -0.0101   0.2691   1.0000
   5.100   0.6282   0.01307   0.00581  -0.0096   0.2554   1.0000
   5.200   0.6362   0.01325   0.00592  -0.0091   0.2420   1.0000
   5.300   0.6440   0.01344   0.00604  -0.0085   0.2289   1.0000
   5.400   0.6518   0.01365   0.00617  -0.0080   0.2162   1.0000
   5.500   0.6598   0.01383   0.00631  -0.0075   0.2037   1.0000
   5.600   0.6677   0.01403   0.00646  -0.0069   0.1920   1.0000
   5.700   0.6754   0.01426   0.00662  -0.0064   0.1813   1.0000
   5.800   0.6828   0.01450   0.00679  -0.0058   0.1712   1.0000
   5.900   0.6908   0.01469   0.00696  -0.0052   0.1614   1.0000
   6.000   0.6982   0.01496   0.00716  -0.0046   0.1532   1.0000
   6.100   0.7061   0.01517   0.00734  -0.0040   0.1449   1.0000
   6.200   0.7134   0.01544   0.00756  -0.0034   0.1380   1.0000
   6.300   0.7213   0.01564   0.00775  -0.0028   0.1311   1.0000
   6.400   0.7282   0.01597   0.00799  -0.0021   0.1253   1.0000
   6.500   0.7365   0.01615   0.00820  -0.0016   0.1196   1.0000
   6.600   0.7438   0.01642   0.00842  -0.0010   0.1148   1.0000
   6.700   0.7510   0.01673   0.00870  -0.0003   0.1103   1.0000
   6.800   0.7592   0.01692   0.00891   0.0002   0.1059   1.0000
   6.900   0.7667   0.01718   0.00914   0.0008   0.1020   1.0000
   7.000   0.7731   0.01760   0.00949   0.0016   0.0984   1.0000
   7.100   0.7815   0.01778   0.00972   0.0021   0.0952   1.0000
   7.200   0.7894   0.01800   0.00995   0.0027   0.0920   1.0000
   7.300   0.7969   0.01828   0.01020   0.0033   0.0892   1.0000
   7.400   0.8028   0.01880   0.01063   0.0041   0.0864   1.0000
   7.500   0.8114   0.01897   0.01088   0.0046   0.0841   1.0000
   7.600   0.8195   0.01920   0.01114   0.0051   0.0816   1.0000
   7.700   0.8274   0.01946   0.01139   0.0057   0.0793   1.0000
   7.800   0.8350   0.01976   0.01168   0.0063   0.0773   1.0000
   7.900   0.8414   0.02034   0.01217   0.0069   0.0753   1.0000
   8.000   0.8496   0.02064   0.01252   0.0074   0.0736   1.0000
   8.100   0.8579   0.02088   0.01282   0.0080   0.0718   1.0000
   8.200   0.8660   0.02115   0.01312   0.0085   0.0700   1.0000
   8.300   0.8741   0.02143   0.01339   0.0089   0.0683   1.0000
   8.400   0.8819   0.02175   0.01369   0.0094   0.0668   1.0000
   8.500   0.8893   0.02227   0.01416   0.0099   0.0654   1.0000
   8.600   0.8970   0.02289   0.01477   0.0104   0.0640   1.0000
   8.700   0.9053   0.02318   0.01513   0.0109   0.0629   1.0000
   8.800   0.9135   0.02350   0.01552   0.0114   0.0616   1.0000
   8.900   0.9217   0.02383   0.01590   0.0118   0.0603   1.0000
   9.000   0.9297   0.02416   0.01624   0.0123   0.0591   1.0000
   9.100   0.9378   0.02449   0.01657   0.0127   0.0580   1.0000
   9.200   0.9457   0.02488   0.01693   0.0131   0.0569   1.0000
   9.300   0.9536   0.02555   0.01755   0.0134   0.0558   1.0000
   9.400   0.9615   0.02626   0.01830   0.0138   0.0548   1.0000
   9.500   0.9692   0.02663   0.01877   0.0144   0.0541   1.0000
   9.600   0.9770   0.02707   0.01929   0.0149   0.0533   1.0000
   9.700   0.9848   0.02753   0.01983   0.0153   0.0525   1.0000
   9.800   0.9924   0.02799   0.02034   0.0158   0.0516   1.0000
   9.900   1.0000   0.02843   0.02082   0.0163   0.0508   1.0000
  10.000   1.0075   0.02885   0.02127   0.0167   0.0500   1.0000
  10.100   1.0151   0.02926   0.02169   0.0171   0.0492   1.0000
  10.200   1.0229   0.02973   0.02214   0.0174   0.0485   1.0000
  10.300   1.0309   0.03046   0.02283   0.0176   0.0478   1.0000
  10.400   1.0378   0.03161   0.02402   0.0180   0.0470   1.0000
  10.500   1.0434   0.03204   0.02458   0.0187   0.0465   1.0000
  10.600   1.0490   0.03259   0.02526   0.0194   0.0460   1.0000
  10.700   1.0546   0.03324   0.02602   0.0201   0.0455   1.0000
  10.800   1.0600   0.03393   0.02683   0.0207   0.0450   1.0000
  10.900   1.0652   0.03464   0.02764   0.0214   0.0445   1.0000
  11.000   1.0703   0.03535   0.02844   0.0220   0.0440   1.0000
  11.100   1.0754   0.03605   0.02923   0.0226   0.0435   1.0000
  11.200   1.0805   0.03672   0.02995   0.0232   0.0431   1.0000
  11.300   1.0859   0.03734   0.03062   0.0238   0.0426   1.0000
  11.400   1.0908   0.03796   0.03129   0.0243   0.0422   1.0000
  11.500   1.0956   0.03856   0.03193   0.0249   0.0418   1.0000
  11.600   1.1009   0.03917   0.03255   0.0254   0.0414   1.0000
  11.700   1.1066   0.03989   0.03327   0.0258   0.0409   1.0000
  11.800   1.1116   0.04100   0.03438   0.0261   0.0405   1.0000
  11.900   1.1129   0.04271   0.03617   0.0266   0.0401   1.0000
  12.000   1.1113   0.04346   0.03708   0.0279   0.0399   1.0000
  12.100   1.1089   0.04432   0.03809   0.0291   0.0397   1.0000
  12.200   1.1056   0.04525   0.03916   0.0303   0.0395   1.0000
  12.300   1.1011   0.04620   0.04024   0.0317   0.0393   1.0000
  12.400   1.0960   0.04724   0.04140   0.0330   0.0392   1.0000
  12.500   1.0904   0.04836   0.04264   0.0342   0.0391   1.0000
  12.600   1.0844   0.04959   0.04399   0.0352   0.0390   1.0000
  12.700   1.0781   0.05091   0.04542   0.0360   0.0389   1.0000
  12.800   1.0712   0.05232   0.04695   0.0366   0.0388   1.0000
  12.900   1.0638   0.05385   0.04859   0.0370   0.0388   1.0000
  13.000   1.0559   0.05549   0.05034   0.0371   0.0388   1.0000
  13.100   1.0476   0.05726   0.05221   0.0371   0.0387   1.0000
  13.200   1.0385   0.05919   0.05424   0.0368   0.0387   1.0000
  13.300   1.0290   0.06128   0.05643   0.0362   0.0387   1.0000
  13.400   1.0192   0.06353   0.05877   0.0353   0.0388   1.0000
  13.500   1.0086   0.06600   0.06134   0.0342   0.0388   1.0000
  13.600   0.9977   0.06866   0.06409   0.0327   0.0389   1.0000
  13.700   0.9864   0.07152   0.06704   0.0310   0.0390   1.0000
  13.800   0.9744   0.07466   0.07026   0.0290   0.0391   1.0000
  13.900   0.9620   0.07801   0.07369   0.0268   0.0392   1.0000
  14.000   0.9491   0.08162   0.07738   0.0243   0.0393   1.0000
  14.100   0.9357   0.08550   0.08132   0.0216   0.0395   1.0000
  14.200   0.9223   0.08955   0.08544   0.0189   0.0397   1.0000
  14.300   0.9089   0.09373   0.08966   0.0161   0.0398   1.0000
  14.400   0.8958   0.09803   0.09401   0.0135   0.0400   1.0000
  14.800   0.4892   0.15023   0.14661  -0.0053   0.0709   1.0000
  14.900   0.4890   0.15119   0.14757  -0.0058   0.0697   1.0000
  15.000   0.4902   0.15207   0.14845  -0.0061   0.0686   1.0000
