  
       XFOIL         Version 6.99
  
 Calculated polar for: NACA 2415                                       
  
 1 1 Reynolds number fixed          Mach number fixed         
  
 xtrf =   1.000 (top)        1.000 (bottom)  
 Mach =   0.000     Re =     0.232 e 6     Ncrit =   9.000
  
   alpha    CL        CD       CDp       CM     Top_Xtr  Bot_Xtr
  ------ -------- --------- --------- -------- -------- --------
 -10.000  -0.9382   0.02605   0.01859  -0.0360   1.0000   0.0659
  -9.900  -0.9324   0.02569   0.01827  -0.0353   1.0000   0.0666
  -9.800  -0.9266   0.02543   0.01803  -0.0345   1.0000   0.0673
  -9.700  -0.9209   0.02520   0.01781  -0.0337   1.0000   0.0680
  -9.600  -0.9152   0.02497   0.01757  -0.0329   1.0000   0.0688
  -9.500  -0.9095   0.02474   0.01732  -0.0321   1.0000   0.0697
  -9.400  -0.9038   0.02449   0.01703  -0.0312   1.0000   0.0706
  -9.300  -0.8980   0.02425   0.01673  -0.0304   1.0000   0.0715
  -9.200  -0.8922   0.02403   0.01644  -0.0296   1.0000   0.0724
  -9.100  -0.8862   0.02382   0.01615  -0.0288   1.0000   0.0732
  -9.000  -0.8800   0.02330   0.01569  -0.0281   1.0000   0.0742
  -8.900  -0.8736   0.02302   0.01545  -0.0275   1.0000   0.0751
  -8.800  -0.8671   0.02282   0.01527  -0.0268   1.0000   0.0760
  -8.700  -0.8605   0.02264   0.01509  -0.0262   1.0000   0.0771
  -8.600  -0.8538   0.02246   0.01489  -0.0255   1.0000   0.0782
  -8.500  -0.8470   0.02227   0.01467  -0.0249   1.0000   0.0795
  -8.400  -0.8401   0.02210   0.01444  -0.0242   1.0000   0.0807
  -8.300  -0.8294   0.02195   0.01420  -0.0243   0.9994   0.0819
  -8.200  -0.8161   0.02141   0.01375  -0.0251   0.9982   0.0836
  -8.100  -0.8014   0.02117   0.01355  -0.0260   0.9968   0.0853
  -8.000  -0.7862   0.02098   0.01336  -0.0270   0.9954   0.0872
  -7.900  -0.7707   0.02080   0.01314  -0.0280   0.9941   0.0893
  -7.800  -0.7550   0.02066   0.01291  -0.0290   0.9929   0.0913
  -7.700  -0.7423   0.02022   0.01253  -0.0296   0.9912   0.0933
  -7.600  -0.7284   0.01997   0.01233  -0.0304   0.9893   0.0954
  -7.500  -0.7137   0.01979   0.01215  -0.0312   0.9875   0.0977
  -7.400  -0.6983   0.01963   0.01195  -0.0322   0.9859   0.1003
  -7.300  -0.6826   0.01945   0.01171  -0.0332   0.9844   0.1028
  -7.200  -0.6678   0.01909   0.01144  -0.0342   0.9832   0.1055
  -7.100  -0.6514   0.01892   0.01129  -0.0354   0.9821   0.1084
  -7.000  -0.6381   0.01876   0.01110  -0.0359   0.9798   0.1113
  -6.900  -0.6244   0.01864   0.01092  -0.0364   0.9773   0.1141
  -6.800  -0.6111   0.01826   0.01063  -0.0371   0.9752   0.1173
  -6.700  -0.5958   0.01809   0.01048  -0.0381   0.9735   0.1207
  -6.600  -0.5796   0.01794   0.01031  -0.0391   0.9720   0.1247
  -6.500  -0.5635   0.01771   0.01008  -0.0402   0.9707   0.1286
  -6.400  -0.5472   0.01748   0.00991  -0.0414   0.9696   0.1327
  -6.300  -0.5330   0.01734   0.00976  -0.0421   0.9675   0.1369
  -6.100  -0.5080   0.01692   0.00939  -0.0428   0.9618   0.1453
  -6.000  -0.4927   0.01677   0.00925  -0.0437   0.9599   0.1503
  -5.900  -0.4765   0.01664   0.00909  -0.0448   0.9584   0.1557
  -5.800  -0.4608   0.01637   0.00891  -0.0458   0.9571   0.1613
  -5.700  -0.4438   0.01624   0.00877  -0.0470   0.9560   0.1676
  -5.600  -0.4270   0.01602   0.00859  -0.0483   0.9550   0.1739
  -5.500  -0.4166   0.01587   0.00848  -0.0482   0.9516   0.1792
  -5.400  -0.4045   0.01578   0.00836  -0.0483   0.9483   0.1853
  -5.300  -0.3905   0.01555   0.00821  -0.0490   0.9461   0.1917
  -5.200  -0.3747   0.01540   0.00807  -0.0500   0.9445   0.1992
  -5.100  -0.3585   0.01521   0.00792  -0.0510   0.9431   0.2067
  -5.000  -0.3417   0.01504   0.00778  -0.0522   0.9419   0.2149
  -4.900  -0.3248   0.01486   0.00763  -0.0534   0.9410   0.2232
  -4.800  -0.3080   0.01468   0.00749  -0.0545   0.9400   0.2319
  -4.700  -0.2914   0.01451   0.00734  -0.0557   0.9390   0.2407
  -4.600  -0.2857   0.01441   0.00729  -0.0545   0.9332   0.2468
  -4.500  -0.2722   0.01429   0.00716  -0.0550   0.9305   0.2555
  -4.400  -0.2580   0.01410   0.00704  -0.0556   0.9284   0.2642
  -4.300  -0.2429   0.01396   0.00690  -0.0563   0.9267   0.2738
  -4.200  -0.2279   0.01376   0.00678  -0.0570   0.9251   0.2833
  -4.100  -0.2125   0.01360   0.00663  -0.0578   0.9237   0.2933
  -4.000  -0.1973   0.01343   0.00651  -0.0586   0.9224   0.3035
  -3.900  -0.1914   0.01337   0.00646  -0.0575   0.9161   0.3110
  -3.800  -0.1793   0.01321   0.00636  -0.0576   0.9129   0.3207
  -3.700  -0.1659   0.01306   0.00623  -0.0579   0.9105   0.3307
  -3.600  -0.1523   0.01290   0.00611  -0.0583   0.9084   0.3416
  -3.500  -0.1384   0.01272   0.00598  -0.0588   0.9065   0.3522
  -3.400  -0.1274   0.01261   0.00589  -0.0586   0.9029   0.3629
  -3.300  -0.1185   0.01249   0.00583  -0.0581   0.8979   0.3723
  -3.100  -0.0945   0.01219   0.00560  -0.0582   0.8917   0.3956
  -3.000  -0.0816   0.01202   0.00548  -0.0584   0.8893   0.4080
  -2.900  -0.0706   0.01191   0.00540  -0.0583   0.8856   0.4208
  -2.800  -0.0620   0.01180   0.00536  -0.0577   0.8803   0.4327
  -2.700  -0.0510   0.01166   0.00527  -0.0575   0.8764   0.4463
  -2.600  -0.0391   0.01152   0.00517  -0.0575   0.8732   0.4612
  -2.500  -0.0269   0.01137   0.00507  -0.0575   0.8704   0.4771
  -2.400  -0.0182   0.01128   0.00505  -0.0569   0.8649   0.4914
  -2.300  -0.0082   0.01117   0.00500  -0.0566   0.8601   0.5069
  -2.200   0.0028   0.01104   0.00492  -0.0564   0.8562   0.5232
  -2.100   0.0144   0.01092   0.00484  -0.0562   0.8529   0.5401
  -2.000   0.0240   0.01084   0.00481  -0.0558   0.8478   0.5564
  -1.800   0.0445   0.01065   0.00472  -0.0551   0.8380   0.5895
  -1.700   0.0558   0.01054   0.00466  -0.0549   0.8345   0.6061
  -1.600   0.0652   0.01048   0.00465  -0.0544   0.8288   0.6218
  -1.500   0.0751   0.01041   0.00463  -0.0539   0.8233   0.6376
  -1.400   0.0859   0.01033   0.00458  -0.0536   0.8189   0.6534
  -1.200   0.1062   0.01022   0.00455  -0.0528   0.8084   0.6840
  -1.100   0.1164   0.01016   0.00453  -0.0524   0.8031   0.6986
  -1.000   0.1274   0.01010   0.00449  -0.0521   0.7988   0.7132
  -0.900   0.1374   0.01007   0.00448  -0.0517   0.7933   0.7278
  -0.800   0.1471   0.01003   0.00449  -0.0511   0.7872   0.7417
  -0.700   0.1576   0.00999   0.00447  -0.0507   0.7823   0.7553
  -0.600   0.1683   0.00997   0.00445  -0.0504   0.7775   0.7689
  -0.500   0.1778   0.00996   0.00448  -0.0498   0.7711   0.7823
  -0.400   0.1881   0.00994   0.00448  -0.0494   0.7656   0.7947
  -0.300   0.1990   0.00994   0.00446  -0.0490   0.7610   0.8076
  -0.200   0.2086   0.00994   0.00450  -0.0485   0.7546   0.8198
  -0.100   0.2188   0.00995   0.00452  -0.0480   0.7487   0.8313
   0.100   0.2398   0.00999   0.00455  -0.0471   0.7379   0.8538
   0.200   0.2499   0.01001   0.00458  -0.0467   0.7317   0.8649
   0.300   0.2611   0.01005   0.00459  -0.0464   0.7265   0.8747
   0.400   0.2720   0.01010   0.00461  -0.0460   0.7210   0.8847
   0.500   0.2832   0.01014   0.00467  -0.0458   0.7146   0.8937
   0.600   0.2946   0.01019   0.00468  -0.0456   0.7092   0.9029
   0.700   0.3077   0.01026   0.00471  -0.0457   0.7040   0.9104
   0.800   0.3184   0.01031   0.00476  -0.0454   0.6975   0.9196
   0.900   0.3331   0.01038   0.00479  -0.0459   0.6917   0.9254
   1.000   0.3460   0.01045   0.00481  -0.0460   0.6869   0.9330
   1.100   0.3599   0.01051   0.00487  -0.0464   0.6802   0.9390
   1.200   0.3757   0.01058   0.00491  -0.0472   0.6741   0.9440
   1.300   0.3894   0.01067   0.00492  -0.0475   0.6692   0.9505
   1.400   0.4056   0.01073   0.00498  -0.0484   0.6627   0.9549
   1.500   0.4234   0.01080   0.00502  -0.0497   0.6564   0.9584
   1.600   0.4408   0.01088   0.00503  -0.0508   0.6511   0.9624
   1.700   0.4555   0.01095   0.00509  -0.0515   0.6448   0.9678
   1.800   0.4753   0.01100   0.00512  -0.0533   0.6384   0.9701
   1.900   0.4943   0.01108   0.00512  -0.0548   0.6330   0.9728
   2.000   0.5120   0.01113   0.00516  -0.0562   0.6265   0.9765
   2.100   0.5277   0.01119   0.00520  -0.0571   0.6204   0.9812
   2.200   0.5471   0.01125   0.00519  -0.0588   0.6148   0.9834
   2.300   0.5660   0.01128   0.00522  -0.0604   0.6083   0.9863
   2.400   0.5840   0.01133   0.00524  -0.0618   0.6019   0.9897
   2.500   0.6013   0.01140   0.00525  -0.0631   0.5965   0.9930
   2.600   0.6205   0.01142   0.00526  -0.0648   0.5900   0.9955
   2.700   0.6394   0.01145   0.00527  -0.0665   0.5835   0.9983
   2.800   0.6544   0.01151   0.00527  -0.0674   0.5782   1.0000
   2.900   0.6629   0.01153   0.00528  -0.0670   0.5730   1.0000
   3.000   0.6712   0.01155   0.00529  -0.0665   0.5675   1.0000
   3.100   0.6796   0.01159   0.00529  -0.0660   0.5626   1.0000
   3.200   0.6882   0.01165   0.00530  -0.0656   0.5581   1.0000
   3.300   0.6963   0.01167   0.00534  -0.0651   0.5526   1.0000
   3.400   0.7045   0.01170   0.00536  -0.0646   0.5473   1.0000
   3.500   0.7129   0.01177   0.00537  -0.0641   0.5426   1.0000
   3.600   0.7213   0.01182   0.00541  -0.0636   0.5378   1.0000
   3.700   0.7294   0.01185   0.00545  -0.0631   0.5323   1.0000
   3.800   0.7377   0.01191   0.00547  -0.0625   0.5272   1.0000
   3.900   0.7461   0.01199   0.00550  -0.0620   0.5227   1.0000
   4.000   0.7542   0.01203   0.00555  -0.0614   0.5173   1.0000
   4.100   0.7623   0.01208   0.00560  -0.0609   0.5119   1.0000
   4.200   0.7705   0.01215   0.00563  -0.0603   0.5069   1.0000
   4.300   0.7788   0.01223   0.00568  -0.0598   0.5021   1.0000
   4.400   0.7868   0.01227   0.00574  -0.0592   0.4964   1.0000
   4.500   0.7949   0.01234   0.00578  -0.0586   0.4911   1.0000
   4.600   0.8032   0.01244   0.00582  -0.0580   0.4864   1.0000
   4.700   0.8112   0.01249   0.00589  -0.0574   0.4808   1.0000
   4.800   0.8192   0.01255   0.00595  -0.0568   0.4753   1.0000
   4.900   0.8273   0.01264   0.00599  -0.0562   0.4703   1.0000
   5.000   0.8355   0.01273   0.00606  -0.0556   0.4652   1.0000
   5.100   0.8435   0.01278   0.00614  -0.0550   0.4594   1.0000
   5.200   0.8515   0.01287   0.00619  -0.0544   0.4541   1.0000
   5.300   0.8596   0.01298   0.00625  -0.0538   0.4492   1.0000
   5.400   0.8676   0.01303   0.00633  -0.0532   0.4431   1.0000
   5.500   0.8755   0.01311   0.00640  -0.0525   0.4374   1.0000
   5.600   0.8834   0.01323   0.00646  -0.0519   0.4323   1.0000
   5.700   0.8915   0.01329   0.00655  -0.0513   0.4263   1.0000
   5.800   0.8993   0.01337   0.00662  -0.0506   0.4202   1.0000
   5.900   0.9070   0.01349   0.00669  -0.0500   0.4149   1.0000
   6.000   0.9150   0.01356   0.00678  -0.0493   0.4087   1.0000
   6.100   0.9228   0.01365   0.00686  -0.0487   0.4025   1.0000
   6.200   0.9302   0.01378   0.00693  -0.0480   0.3969   1.0000
   6.300   0.9383   0.01385   0.00703  -0.0474   0.3903   1.0000
   6.400   0.9459   0.01396   0.00711  -0.0467   0.3838   1.0000
   6.500   0.9533   0.01409   0.00720  -0.0460   0.3780   1.0000
   6.600   0.9614   0.01417   0.00730  -0.0454   0.3709   1.0000
   6.700   0.9687   0.01430   0.00740  -0.0447   0.3643   1.0000
   6.800   0.9764   0.01442   0.00751  -0.0441   0.3578   1.0000
   6.900   0.9841   0.01454   0.00761  -0.0434   0.3506   1.0000
   7.100   0.9992   0.01480   0.00784  -0.0421   0.3369   1.0000
   7.200   1.0064   0.01496   0.00796  -0.0414   0.3299   1.0000
   7.300   1.0139   0.01510   0.00809  -0.0408   0.3230   1.0000
   7.400   1.0213   0.01525   0.00822  -0.0401   0.3156   1.0000
   7.500   1.0282   0.01543   0.00836  -0.0394   0.3088   1.0000
   7.600   1.0359   0.01557   0.00850  -0.0388   0.3012   1.0000
   7.700   1.0423   0.01577   0.00865  -0.0380   0.2942   1.0000
   7.800   1.0500   0.01592   0.00880  -0.0374   0.2866   1.0000
   7.900   1.0565   0.01612   0.00896  -0.0366   0.2793   1.0000
   8.000   1.0635   0.01631   0.00913  -0.0359   0.2720   1.0000
   8.100   1.0702   0.01650   0.00930  -0.0352   0.2645   1.0000
   8.200   1.0765   0.01672   0.00948  -0.0344   0.2575   1.0000
   8.300   1.0834   0.01692   0.00967  -0.0337   0.2497   1.0000
   8.400   1.0888   0.01718   0.00987  -0.0328   0.2430   1.0000
   8.500   1.0959   0.01736   0.01006  -0.0322   0.2353   1.0000
   8.600   1.1010   0.01763   0.01027  -0.0312   0.2285   1.0000
   8.700   1.1077   0.01784   0.01048  -0.0305   0.2213   1.0000
   8.800   1.1130   0.01810   0.01070  -0.0296   0.2145   1.0000
   8.900   1.1185   0.01835   0.01093  -0.0288   0.2080   1.0000
   9.000   1.1236   0.01859   0.01115  -0.0278   0.2013   1.0000
   9.100   1.1270   0.01891   0.01141  -0.0266   0.1957   1.0000
   9.200   1.1330   0.01913   0.01164  -0.0258   0.1892   1.0000
   9.300   1.1369   0.01943   0.01191  -0.0247   0.1835   1.0000
   9.400   1.1414   0.01973   0.01219  -0.0237   0.1781   1.0000
   9.500   1.1466   0.02001   0.01246  -0.0229   0.1723   1.0000
   9.600   1.1500   0.02037   0.01277  -0.0218   0.1674   1.0000
   9.700   1.1551   0.02067   0.01307  -0.0210   0.1623   1.0000
   9.800   1.1599   0.02098   0.01337  -0.0201   0.1572   1.0000
   9.900   1.1630   0.02138   0.01372  -0.0191   0.1530   1.0000
  10.000   1.1680   0.02171   0.01405  -0.0183   0.1485   1.0000
  10.100   1.1729   0.02203   0.01439  -0.0175   0.1440   1.0000
  10.200   1.1762   0.02245   0.01477  -0.0165   0.1401   1.0000
  10.300   1.1796   0.02288   0.01517  -0.0156   0.1365   1.0000
  10.400   1.1851   0.02319   0.01552  -0.0149   0.1325   1.0000
  10.500   1.1891   0.02359   0.01591  -0.0141   0.1290   1.0000
  10.600   1.1914   0.02410   0.01636  -0.0131   0.1260   1.0000
  10.700   1.1955   0.02452   0.01679  -0.0124   0.1228   1.0000
  10.800   1.2006   0.02488   0.01719  -0.0117   0.1195   1.0000
  10.900   1.2044   0.02532   0.01762  -0.0110   0.1166   1.0000
  11.000   1.2066   0.02586   0.01812  -0.0101   0.1141   1.0000
  11.100   1.2092   0.02641   0.01865  -0.0093   0.1117   1.0000
  11.200   1.2143   0.02679   0.01908  -0.0087   0.1090   1.0000
  11.300   1.2185   0.02723   0.01955  -0.0081   0.1064   1.0000
  11.400   1.2217   0.02774   0.02005  -0.0074   0.1042   1.0000
  11.500   1.2234   0.02837   0.02064  -0.0066   0.1023   1.0000
  11.600   1.2258   0.02898   0.02124  -0.0059   0.1003   1.0000
  11.700   1.2305   0.02942   0.02174  -0.0053   0.0982   1.0000
  11.800   1.2345   0.02992   0.02226  -0.0048   0.0961   1.0000
  11.900   1.2379   0.03045   0.02281  -0.0042   0.0943   1.0000
  12.000   1.2403   0.03107   0.02341  -0.0036   0.0927   1.0000
  12.100   1.2416   0.03180   0.02410  -0.0029   0.0911   1.0000
  12.200   1.2445   0.03242   0.02473  -0.0024   0.0895   1.0000
  12.300   1.2485   0.03294   0.02532  -0.0019   0.0879   1.0000
  12.400   1.2521   0.03351   0.02592  -0.0015   0.0863   1.0000
  12.500   1.2553   0.03411   0.02655  -0.0010   0.0848   1.0000
  12.600   1.2580   0.03476   0.02719  -0.0006   0.0835   1.0000
  12.700   1.2600   0.03547   0.02788  -0.0001   0.0822   1.0000
  12.800   1.2612   0.03626   0.02863   0.0005   0.0810   1.0000
  12.900   1.2644   0.03691   0.02933   0.0009   0.0798   1.0000
  13.000   1.2677   0.03754   0.03001   0.0013   0.0785   1.0000
  13.100   1.2708   0.03820   0.03072   0.0016   0.0773   1.0000
  13.200   1.2736   0.03888   0.03142   0.0020   0.0761   1.0000
  13.300   1.2762   0.03958   0.03213   0.0023   0.0750   1.0000
  13.400   1.2785   0.04032   0.03288   0.0026   0.0740   1.0000
  13.500   1.2804   0.04108   0.03362   0.0030   0.0731   1.0000
  13.600   1.2825   0.04185   0.03433   0.0036   0.0720   1.0000
  13.700   1.2850   0.04260   0.03515   0.0038   0.0711   1.0000
  13.800   1.2875   0.04336   0.03597   0.0041   0.0702   1.0000
  13.900   1.2899   0.04412   0.03679   0.0043   0.0692   1.0000
  14.000   1.2922   0.04490   0.03760   0.0046   0.0683   1.0000
  14.100   1.2945   0.04568   0.03841   0.0048   0.0674   1.0000
  14.200   1.2968   0.04647   0.03920   0.0050   0.0666   1.0000
  14.300   1.2989   0.04727   0.04000   0.0052   0.0658   1.0000
  14.400   1.3010   0.04806   0.04078   0.0055   0.0651   1.0000
  14.500   1.3041   0.04875   0.04142   0.0059   0.0642   1.0000
  14.600   1.3065   0.04955   0.04224   0.0062   0.0635   1.0000
  14.700   1.3077   0.05049   0.04326   0.0063   0.0629   1.0000
  14.800   1.3090   0.05141   0.04426   0.0064   0.0622   1.0000
  14.900   1.3106   0.05232   0.04522   0.0065   0.0614   1.0000
  15.000   1.3123   0.05323   0.04617   0.0066   0.0607   1.0000
  15.100   1.3140   0.05413   0.04710   0.0067   0.0601   1.0000
  15.200   1.3159   0.05501   0.04800   0.0068   0.0594   1.0000
  15.300   1.3179   0.05587   0.04887   0.0069   0.0588   1.0000
  15.400   1.3202   0.05670   0.04969   0.0070   0.0582   1.0000
  15.500   1.3230   0.05746   0.05043   0.0072   0.0576   1.0000
  15.600   1.3279   0.05796   0.05088   0.0077   0.0569   1.0000
  15.700   1.3291   0.05896   0.05192   0.0078   0.0564   1.0000
  15.800   1.3287   0.06015   0.05321   0.0077   0.0559   1.0000
  15.900   1.3283   0.06137   0.05450   0.0076   0.0554   1.0000
  16.000   1.3284   0.06252   0.05572   0.0075   0.0549   1.0000
  16.100   1.3287   0.06365   0.05691   0.0075   0.0543   1.0000
  16.200   1.3293   0.06477   0.05807   0.0074   0.0538   1.0000
  16.300   1.3300   0.06585   0.05919   0.0073   0.0533   1.0000
  16.400   1.3310   0.06690   0.06028   0.0072   0.0528   1.0000
  16.500   1.3323   0.06791   0.06130   0.0071   0.0523   1.0000
  16.600   1.3342   0.06885   0.06224   0.0071   0.0519   1.0000
  16.700   1.3367   0.06969   0.06307   0.0071   0.0514   1.0000
  16.800   1.3404   0.07037   0.06373   0.0073   0.0510   1.0000
  16.900   1.3467   0.07069   0.06400   0.0079   0.0504   1.0000
  17.000   1.3467   0.07191   0.06527   0.0079   0.0500   1.0000
  17.100   1.3443   0.07346   0.06692   0.0075   0.0497   1.0000
  17.200   1.3418   0.07504   0.06858   0.0071   0.0494   1.0000
  17.300   1.3397   0.07659   0.07022   0.0067   0.0491   1.0000
  17.400   1.3375   0.07815   0.07185   0.0063   0.0487   1.0000
  17.500   1.3358   0.07966   0.07344   0.0059   0.0484   1.0000
  17.600   1.3337   0.08123   0.07507   0.0054   0.0480   1.0000
  17.700   1.3319   0.08276   0.07666   0.0050   0.0477   1.0000
  17.800   1.3304   0.08426   0.07822   0.0046   0.0473   1.0000
  17.900   1.3292   0.08572   0.07972   0.0041   0.0470   1.0000
  18.000   1.3285   0.08713   0.08116   0.0037   0.0466   1.0000
  18.100   1.3284   0.08843   0.08249   0.0033   0.0463   1.0000
  18.200   1.3290   0.08963   0.08371   0.0030   0.0459   1.0000
  18.300   1.3305   0.09066   0.08475   0.0028   0.0456   1.0000
  18.400   1.3335   0.09146   0.08554   0.0027   0.0452   1.0000
  18.500   1.3389   0.09187   0.08589   0.0030   0.0448   1.0000
  18.600   1.3435   0.09238   0.08638   0.0035   0.0444   1.0000
  18.700   1.3374   0.09464   0.08874   0.0025   0.0442   1.0000
  18.800   1.3313   0.09693   0.09114   0.0015   0.0441   1.0000
  18.900   1.3250   0.09929   0.09360   0.0004   0.0439   1.0000
  19.000   1.3187   0.10167   0.09607  -0.0008   0.0437   1.0000
  19.100   1.3123   0.10412   0.09862  -0.0019   0.0435   1.0000
  19.200   1.3058   0.10659   0.10118  -0.0031   0.0434   1.0000
  19.300   1.2992   0.10913   0.10381  -0.0044   0.0432   1.0000
  19.400   1.2923   0.11175   0.10652  -0.0058   0.0430   1.0000
  19.500   1.2851   0.11443   0.10930  -0.0072   0.0429   1.0000
  19.600   1.2776   0.11725   0.11220  -0.0087   0.0427   1.0000
  19.700   1.2697   0.12014   0.11518  -0.0104   0.0426   1.0000
  19.800   1.2609   0.12323   0.11837  -0.0122   0.0425   1.0000
  19.900   1.2516   0.12649   0.12172  -0.0141   0.0423   1.0000
  20.000   1.2411   0.13003   0.12535  -0.0162   0.0423   1.0000
  20.100   1.2286   0.13404   0.12948  -0.0188   0.0422   1.0000
  20.200   1.2131   0.13879   0.13434  -0.0218   0.0422   1.0000
  20.300   1.1907   0.14517   0.14088  -0.0261   0.0423   1.0000
  20.800   0.5989   0.20807   0.20474  -0.0427   0.0587   1.0000
  20.900   0.6016   0.20885   0.20552  -0.0430   0.0582   1.0000
  21.000   0.6047   0.20960   0.20627  -0.0432   0.0578   1.0000
  21.100   0.6084   0.21034   0.20702  -0.0432   0.0575   1.0000
  21.200   0.6129   0.21110   0.20779  -0.0432   0.0572   1.0000
  21.300   0.6185   0.21195   0.20865  -0.0430   0.0570   1.0000
  21.400   0.6258   0.21304   0.20974  -0.0427   0.0568   1.0000
  21.500   0.6305   0.21455   0.21126  -0.0427   0.0567   1.0000
  21.600   0.6060   0.21737   0.21407  -0.0468   0.0551   1.0000
  21.700   0.6061   0.21864   0.21534  -0.0475   0.0541   1.0000
  21.800   0.6072   0.21971   0.21642  -0.0480   0.0533   1.0000
  21.900   0.6088   0.22068   0.21739  -0.0485   0.0527   1.0000
  22.000   0.6108   0.22156   0.21828  -0.0488   0.0521   1.0000
  22.100   0.6132   0.22238   0.21910  -0.0491   0.0516   1.0000
  22.200   0.6161   0.22312   0.21986  -0.0493   0.0512   1.0000
  22.300   0.6196   0.22384   0.22058  -0.0494   0.0509   1.0000
  22.400   0.6239   0.22460   0.22135  -0.0494   0.0506   1.0000
  22.500   0.6295   0.22549   0.22224  -0.0492   0.0504   1.0000
  22.600   0.6367   0.22670   0.22346  -0.0488   0.0503   1.0000
  22.700   0.6262   0.22861   0.22537  -0.0510   0.0500   1.0000
  22.800   0.6188   0.23082   0.22757  -0.0529   0.0486   1.0000
  22.900   0.6195   0.23202   0.22878  -0.0535   0.0478   1.0000
  23.000   0.6207   0.23310   0.22987  -0.0540   0.0471   1.0000
  23.100   0.6222   0.23410   0.23088  -0.0545   0.0466   1.0000
  23.200   0.6239   0.23505   0.23183  -0.0549   0.0461   1.0000
  23.300   0.6259   0.23595   0.23274  -0.0553   0.0457   1.0000
  23.400   0.6281   0.23680   0.23359  -0.0556   0.0454   1.0000
  23.500   0.6307   0.23763   0.23443  -0.0558   0.0451   1.0000
  23.600   0.6337   0.23845   0.23525  -0.0560   0.0449   1.0000
  23.700   0.6373   0.23931   0.23612  -0.0561   0.0447   1.0000
  23.800   0.6420   0.24030   0.23712  -0.0560   0.0445   1.0000
  23.900   0.6483   0.24162   0.23845  -0.0557   0.0444   1.0000
  24.000   0.6335   0.24409   0.24090  -0.0588   0.0436   1.0000
  24.100   0.6333   0.24554   0.24237  -0.0596   0.0426   1.0000
  24.200   0.6343   0.24667   0.24350  -0.0601   0.0419   1.0000
  24.300   0.6357   0.24772   0.24456  -0.0606   0.0413   1.0000
  24.400   0.6372   0.24871   0.24556  -0.0610   0.0409   1.0000
  24.500   0.6389   0.24966   0.24651  -0.0614   0.0405   1.0000
  24.600   0.6408   0.25056   0.24742  -0.0618   0.0402   1.0000
  24.700   0.6428   0.25143   0.24830  -0.0622   0.0399   1.0000
  24.800   0.6452   0.25229   0.24916  -0.0624   0.0397   1.0000
  24.900   0.6479   0.25315   0.25002  -0.0626   0.0395   1.0000
  25.000   0.6512   0.25407   0.25096  -0.0628   0.0393   1.0000
