  
       XFOIL         Version 6.99
  
 Calculated polar for: NACA 2415                                       
  
 1 1 Reynolds number fixed          Mach number fixed         
  
 xtrf =   1.000 (top)        1.000 (bottom)  
 Mach =   0.000     Re =     0.043 e 6     Ncrit =   9.000
  
   alpha    CL        CD       CDp       CM     Top_Xtr  Bot_Xtr
  ------ -------- --------- --------- -------- -------- --------
 -10.000  -0.3528   0.11720   0.10841  -0.0134   1.0000   0.3912
  -9.917  -0.3517   0.11647   0.10768  -0.0132   1.0000   0.3964
  -9.833  -0.3650   0.11699   0.10825  -0.0127   1.0000   0.4008
  -9.750  -0.3805   0.11750   0.10885  -0.0124   1.0000   0.4024
  -9.667  -0.3536   0.11374   0.10501  -0.0129   1.0000   0.4059
  -9.583  -0.3441   0.11222   0.10347  -0.0129   1.0000   0.4100
  -9.500  -0.3433   0.11149   0.10275  -0.0127   1.0000   0.4153
  -9.417  -0.3579   0.11206   0.10337  -0.0120   1.0000   0.4199
  -9.333  -0.3666   0.11172   0.10308  -0.0118   1.0000   0.4216
  -9.250  -0.3405   0.10850   0.09979  -0.0122   1.0000   0.4264
  -9.167  -0.3343   0.10739   0.09868  -0.0121   1.0000   0.4318
  -9.083  -0.3435   0.10748   0.09880  -0.0114   1.0000   0.4376
  -9.000  -0.3616   0.10814   0.09953  -0.0106   1.0000   0.4398
  -8.917  -0.3392   0.10501   0.09636  -0.0113   1.0000   0.4432
  -8.833  -0.3289   0.10347   0.09481  -0.0114   1.0000   0.4473
  -8.750  -0.3276   0.10270   0.09404  -0.0111   1.0000   0.4526
  -8.667  -0.3431   0.10321   0.09461  -0.0101   1.0000   0.4576
  -8.583  -0.3518   0.10281   0.09426  -0.0095   1.0000   0.4592
  -8.500  -0.3260   0.09983   0.09121  -0.0103   1.0000   0.4639
  -8.417  -0.3198   0.09873   0.09010  -0.0102   1.0000   0.4692
  -8.333  -0.3284   0.09868   0.09009  -0.0093   1.0000   0.4750
  -8.250  -0.3452   0.09906   0.09054  -0.0082   1.0000   0.4773
  -8.167  -0.3316   0.09678   0.08825  -0.0087   1.0000   0.4798
  -8.083  -0.3210   0.09513   0.08657  -0.0090   1.0000   0.4825
  -8.000  -0.3166   0.09396   0.08540  -0.0090   1.0000   0.4850
  -7.917  -0.3154   0.09299   0.08444  -0.0088   1.0000   0.4872
  -7.833  -0.3162   0.09208   0.08354  -0.0086   1.0000   0.4887
  -7.750  -0.3177   0.09103   0.08251  -0.0084   1.0000   0.4877
  -7.583  -0.6491   0.05984   0.05148  -0.0288   1.0000   0.2341
  -7.500  -0.6554   0.05828   0.04983  -0.0281   1.0000   0.2344
  -7.417  -0.6611   0.05672   0.04817  -0.0275   1.0000   0.2348
  -7.333  -0.6665   0.05518   0.04651  -0.0268   1.0000   0.2354
  -7.250  -0.6714   0.05365   0.04482  -0.0261   1.0000   0.2361
  -7.167  -0.6760   0.05211   0.04310  -0.0254   1.0000   0.2368
  -7.083  -0.6644   0.05214   0.04335  -0.0248   1.0000   0.2398
  -7.000  -0.6583   0.05184   0.04311  -0.0240   1.0000   0.2424
  -6.917  -0.6562   0.05110   0.04233  -0.0233   1.0000   0.2446
  -6.833  -0.6557   0.05013   0.04129  -0.0227   1.0000   0.2467
  -6.750  -0.6559   0.04903   0.04007  -0.0221   1.0000   0.2487
  -6.667  -0.6567   0.04781   0.03870  -0.0215   1.0000   0.2507
  -6.583  -0.6577   0.04652   0.03721  -0.0210   1.0000   0.2527
  -6.500  -0.6583   0.04525   0.03571  -0.0205   1.0000   0.2547
  -6.417  -0.6500   0.04507   0.03572  -0.0199   1.0000   0.2577
  -6.333  -0.6441   0.04477   0.03549  -0.0192   1.0000   0.2609
  -6.250  -0.6403   0.04417   0.03484  -0.0186   1.0000   0.2641
  -6.167  -0.6379   0.04331   0.03385  -0.0181   1.0000   0.2674
  -6.083  -0.6363   0.04224   0.03256  -0.0177   1.0000   0.2707
  -6.000  -0.6328   0.04142   0.03165  -0.0173   1.0000   0.2738
  -5.917  -0.6260   0.04118   0.03154  -0.0166   1.0000   0.2772
  -5.833  -0.6206   0.04079   0.03117  -0.0161   1.0000   0.2810
  -5.750  -0.6164   0.04015   0.03041  -0.0156   1.0000   0.2853
  -5.667  -0.6134   0.03922   0.02924  -0.0154   1.0000   0.2897
  -5.583  -0.6076   0.03879   0.02888  -0.0148   1.0000   0.2935
  -5.500  -0.6014   0.03853   0.02870  -0.0142   1.0000   0.2976
  -5.417  -0.5961   0.03804   0.02816  -0.0138   1.0000   0.3023
  -5.333  -0.5919   0.03728   0.02717  -0.0136   1.0000   0.3078
  -5.250  -0.5859   0.03691   0.02688  -0.0130   1.0000   0.3122
  -5.167  -0.5798   0.03666   0.02670  -0.0125   1.0000   0.3171
  -5.083  -0.5743   0.03616   0.02612  -0.0121   1.0000   0.3229
  -5.000  -0.5688   0.03556   0.02537  -0.0119   1.0000   0.3286
  -4.917  -0.5626   0.03534   0.02527  -0.0113   1.0000   0.3336
  -4.833  -0.5566   0.03500   0.02491  -0.0109   1.0000   0.3399
  -4.750  -0.5508   0.03446   0.02422  -0.0107   1.0000   0.3469
  -4.667  -0.5444   0.03425   0.02413  -0.0101   1.0000   0.3522
  -4.583  -0.5382   0.03392   0.02379  -0.0098   1.0000   0.3590
  -4.500  -0.5319   0.03347   0.02325  -0.0096   1.0000   0.3664
  -4.417  -0.5256   0.03329   0.02318  -0.0090   1.0000   0.3726
  -4.333  -0.5193   0.03294   0.02273  -0.0088   1.0000   0.3809
  -4.250  -0.5129   0.03265   0.02250  -0.0083   1.0000   0.3877
  -4.167  -0.5066   0.03243   0.02231  -0.0079   1.0000   0.3953
  -4.083  -0.5001   0.03208   0.02188  -0.0077   1.0000   0.4041
  -4.000  -0.4939   0.03193   0.02184  -0.0071   1.0000   0.4113
  -3.917  -0.4873   0.03160   0.02140  -0.0070   1.0000   0.4215
  -3.833  -0.4812   0.03146   0.02140  -0.0063   1.0000   0.4284
  -3.750  -0.4746   0.03119   0.02106  -0.0061   1.0000   0.4389
  -3.667  -0.4686   0.03105   0.02105  -0.0055   1.0000   0.4467
  -3.583  -0.4621   0.03082   0.02076  -0.0053   1.0000   0.4577
  -3.500  -0.4562   0.03070   0.02075  -0.0046   1.0000   0.4658
  -3.417  -0.4495   0.03047   0.02046  -0.0045   1.0000   0.4777
  -3.333  -0.4438   0.03039   0.02052  -0.0037   1.0000   0.4861
  -3.250  -0.4372   0.03020   0.02030  -0.0035   1.0000   0.4981
  -3.167  -0.4316   0.03012   0.02031  -0.0027   1.0000   0.5078
  -3.083  -0.4256   0.02997   0.02018  -0.0023   1.0000   0.5193
  -3.000  -0.4198   0.02986   0.02011  -0.0018   1.0000   0.5311
  -2.917  -0.4142   0.02977   0.02010  -0.0011   1.0000   0.5420
  -2.833  -0.4082   0.02965   0.01999  -0.0007   1.0000   0.5555
  -2.750  -0.4028   0.02960   0.02001   0.0001   1.0000   0.5670
  -2.667  -0.3973   0.02952   0.02000   0.0007   1.0000   0.5796
  -2.583  -0.3915   0.02943   0.01993   0.0012   1.0000   0.5941
  -2.500  -0.3862   0.02939   0.01996   0.0020   1.0000   0.6075
  -2.417  -0.3811   0.02935   0.02000   0.0029   1.0000   0.6208
  -2.333  -0.3758   0.02930   0.01999   0.0036   1.0000   0.6358
  -2.250  -0.3706   0.02925   0.01999   0.0043   1.0000   0.6518
  -2.167  -0.3659   0.02922   0.02003   0.0052   1.0000   0.6679
  -2.083  -0.3617   0.02922   0.02012   0.0064   1.0000   0.6829
  -2.000  -0.3575   0.02921   0.02018   0.0075   1.0000   0.6994
  -1.917  -0.3535   0.02920   0.02025   0.0086   1.0000   0.7168
  -1.833  -0.3498   0.02920   0.02033   0.0099   1.0000   0.7351
  -1.750  -0.3464   0.02921   0.02042   0.0113   1.0000   0.7543
  -1.667  -0.3431   0.02924   0.02052   0.0127   1.0000   0.7745
  -1.583  -0.3398   0.02928   0.02064   0.0142   1.0000   0.7960
  -1.500  -0.3361   0.02934   0.02077   0.0157   1.0000   0.8199
  -1.417  -0.3308   0.02945   0.02094   0.0170   1.0000   0.8460
  -1.333  -0.3204   0.02969   0.02123   0.0174   1.0000   0.8760
  -1.250  -0.2955   0.03022   0.02175   0.0152   1.0000   0.9138
  -1.167  -0.2289   0.03146   0.02282   0.0050   1.0000   0.9606
  -1.083  -0.1352   0.03260   0.02368  -0.0116   1.0000   1.0000
  -1.000  -0.1487   0.03208   0.02315  -0.0099   1.0000   1.0000
  -0.917  -0.1605   0.03163   0.02267  -0.0083   1.0000   1.0000
  -0.833  -0.1696   0.03127   0.02228  -0.0069   1.0000   1.0000
  -0.750  -0.1759   0.03102   0.02198  -0.0057   1.0000   1.0000
  -0.667  -0.1796   0.03087   0.02177  -0.0048   1.0000   1.0000
  -0.583  -0.1789   0.03085   0.02167  -0.0045   0.9994   1.0000
  -0.500  -0.1610   0.03120   0.02191  -0.0072   0.9941   1.0000
  -0.417  -0.1447   0.03152   0.02213  -0.0095   0.9886   1.0000
  -0.333  -0.1275   0.03191   0.02241  -0.0119   0.9834   1.0000
  -0.250  -0.1128   0.03223   0.02265  -0.0138   0.9780   1.0000
  -0.167  -0.0979   0.03257   0.02290  -0.0156   0.9727   1.0000
  -0.083  -0.0806   0.03300   0.02324  -0.0178   0.9680   1.0000
   0.000  -0.0706   0.03322   0.02340  -0.0187   0.9623   1.0000
   0.083  -0.0546   0.03360   0.02371  -0.0206   0.9572   1.0000
   0.167  -0.0400   0.03397   0.02400  -0.0222   0.9522   1.0000
   0.250  -0.0303   0.03420   0.02419  -0.0229   0.9466   1.0000
   0.333  -0.0142   0.03459   0.02451  -0.0247   0.9417   1.0000
   0.417   0.0000   0.03496   0.02481  -0.0262   0.9370   1.0000
   0.500   0.0072   0.03517   0.02499  -0.0264   0.9315   1.0000
   0.583   0.0217   0.03552   0.02529  -0.0279   0.9264   1.0000
   0.667   0.0415   0.03598   0.02568  -0.0302   0.9220   1.0000
   0.750   0.0442   0.03614   0.02581  -0.0297   0.9163   1.0000
   0.833   0.0561   0.03645   0.02608  -0.0306   0.9111   1.0000
   0.917   0.0748   0.03686   0.02644  -0.0327   0.9067   1.0000
   1.000   0.0818   0.03713   0.02668  -0.0328   0.9017   1.0000
   1.083   0.0888   0.03739   0.02690  -0.0329   0.8963   1.0000
   1.167   0.1039   0.03772   0.02721  -0.0343   0.8915   1.0000
   1.250   0.1232   0.03812   0.02756  -0.0363   0.8871   1.0000
   1.333   0.1227   0.03834   0.02776  -0.0353   0.8816   1.0000
   1.417   0.1327   0.03863   0.02803  -0.0358   0.8765   1.0000
   1.500   0.1503   0.03898   0.02835  -0.0375   0.8721   1.0000
   1.583   0.1604   0.03931   0.02865  -0.0380   0.8674   1.0000
   1.667   0.1630   0.03958   0.02890  -0.0374   0.8620   1.0000
   1.750   0.1755   0.03989   0.02918  -0.0383   0.8570   1.0000
   1.833   0.1963   0.04022   0.02950  -0.0404   0.8528   1.0000
   1.917   0.1975   0.04054   0.02979  -0.0396   0.8477   1.0000
   2.000   0.2024   0.04085   0.03009  -0.0393   0.8426   1.0000
   2.083   0.2166   0.04115   0.03037  -0.0404   0.8379   1.0000
   2.167   0.2400   0.04145   0.03066  -0.0427   0.8338   1.0000
   2.250   0.2341   0.04181   0.03100  -0.0409   0.8282   1.0000
   2.333   0.2412   0.04213   0.03131  -0.0409   0.8231   1.0000
   2.417   0.2574   0.04241   0.03158  -0.0422   0.8186   1.0000
   2.500   0.2743   0.04272   0.03187  -0.0435   0.8144   1.0000
   2.583   0.2698   0.04313   0.03228  -0.0420   0.8090   1.0000
   2.667   0.2783   0.04345   0.03259  -0.0422   0.8040   1.0000
   2.750   0.2971   0.04368   0.03282  -0.0436   0.7995   1.0000
   2.833   0.3063   0.04403   0.03316  -0.0439   0.7949   1.0000
   2.917   0.3046   0.04448   0.03359  -0.0428   0.7896   1.0000
   3.000   0.3147   0.04480   0.03391  -0.0432   0.7848   1.0000
   3.083   0.3353   0.04497   0.03409  -0.0448   0.7805   1.0000
   3.167   0.3383   0.04541   0.03452  -0.0442   0.7756   1.0000
   3.250   0.3384   0.04587   0.03498  -0.0434   0.7703   1.0000
   3.333   0.3511   0.04614   0.03525  -0.0440   0.7654   1.0000
   3.417   0.3744   0.04623   0.03535  -0.0458   0.7613   1.0000
   3.500   0.3691   0.04686   0.03596  -0.0443   0.7562   1.0000
   3.583   0.3713   0.04732   0.03643  -0.0438   0.7510   1.0000
   3.667   0.3863   0.04752   0.03664  -0.0446   0.7462   1.0000
   3.750   0.4136   0.04746   0.03660  -0.0466   0.7421   1.0000
   3.833   0.3989   0.04835   0.03747  -0.0443   0.7365   1.0000
   3.917   0.4041   0.04877   0.03789  -0.0440   0.7314   1.0000
   4.000   0.4218   0.04889   0.03803  -0.0450   0.7268   1.0000
   4.083   0.4375   0.04907   0.03823  -0.0457   0.7224   1.0000
   4.167   0.4281   0.04991   0.03906  -0.0441   0.7168   1.0000
   4.250   0.4368   0.05024   0.03940  -0.0441   0.7117   1.0000
   4.333   0.4594   0.05016   0.03935  -0.0454   0.7072   1.0000
   4.417   0.4607   0.05077   0.03995  -0.0448   0.7023   1.0000
   4.500   0.4570   0.05151   0.04069  -0.0438   0.6969   1.0000
   4.583   0.4697   0.05172   0.04092  -0.0441   0.6919   1.0000
   4.667   0.4984   0.05135   0.04059  -0.0457   0.6876   1.0000
   4.750   0.4845   0.05252   0.04174  -0.0439   0.6820   1.0000
   4.833   0.4867   0.05309   0.04233  -0.0434   0.6766   1.0000
   4.917   0.5052   0.05305   0.04232  -0.0441   0.6718   1.0000
   5.000   0.5235   0.05302   0.04232  -0.0448   0.6674   1.0000
   5.083   0.5089   0.05432   0.04360  -0.0431   0.6617   1.0000
   5.167   0.5174   0.05465   0.04395  -0.0430   0.6564   1.0000
   5.250   0.5447   0.05414   0.04348  -0.0441   0.6517   1.0000
   5.333   0.5385   0.05518   0.04451  -0.0431   0.6464   1.0000
   5.417   0.5349   0.05607   0.04541  -0.0422   0.6410   1.0000
   5.500   0.5510   0.05604   0.04541  -0.0426   0.6359   1.0000
   5.583   0.5814   0.05527   0.04470  -0.0437   0.6314   1.0000
   5.667   0.5577   0.05726   0.04666  -0.0417   0.6256   1.0000
   5.750   0.5638   0.05769   0.04711  -0.0415   0.6201   1.0000
   5.833   0.5925   0.05690   0.04638  -0.0423   0.6152   1.0000
   5.917   0.5873   0.05803   0.04750  -0.0415   0.6101   1.0000
   6.000   0.5800   0.05923   0.04870  -0.0406   0.6046   1.0000
   6.083   0.5972   0.05903   0.04854  -0.0408   0.5992   1.0000
   6.167   0.6271   0.05802   0.04759  -0.0413   0.5944   1.0000
   6.250   0.6015   0.06044   0.04997  -0.0398   0.5886   1.0000
   6.333   0.6081   0.06085   0.05041  -0.0395   0.5831   1.0000
   6.417   0.6437   0.05936   0.04901  -0.0402   0.5781   1.0000
   6.500   0.6280   0.06132   0.05094  -0.0391   0.5728   1.0000
   6.583   0.6220   0.06256   0.05218  -0.0385   0.5672   1.0000
   6.667   0.6474   0.06163   0.05132  -0.0386   0.5616   1.0000
   6.750   0.6599   0.06163   0.05134  -0.0383   0.5564   1.0000
   6.833   0.6402   0.06396   0.05365  -0.0374   0.5509   1.0000
   6.917   0.6523   0.06395   0.05368  -0.0372   0.5453   1.0000
   7.000   0.7067   0.06052   0.05038  -0.0374   0.5401   1.0000
   7.083   0.6612   0.06512   0.05489  -0.0364   0.5346   1.0000
   7.167   0.6627   0.06590   0.05568  -0.0360   0.5289   1.0000
   7.250   0.7122   0.06267   0.05258  -0.0358   0.5232   1.0000
   7.333   0.6855   0.06594   0.05580  -0.0352   0.5181   1.0000
   7.417   0.6749   0.06776   0.05762  -0.0348   0.5127   1.0000
   7.500   0.7093   0.06569   0.05563  -0.0343   0.5065   1.0000
   7.583   0.7131   0.06631   0.05627  -0.0338   0.5012   1.0000
   7.667   0.6905   0.06931   0.05923  -0.0335   0.4961   1.0000
   7.750   0.7095   0.06854   0.05852  -0.0330   0.4901   1.0000
   7.833   0.7476   0.06582   0.05589  -0.0321   0.4842   1.0000
   7.917   0.7079   0.07071   0.06071  -0.0322   0.4797   1.0000
   8.000   0.7107   0.07141   0.06143  -0.0318   0.4740   1.0000
   8.083   0.7946   0.06355   0.05377  -0.0297   0.4668   1.0000
   8.167   0.7277   0.07176   0.06185  -0.0308   0.4630   1.0000
   8.250   0.7170   0.07386   0.06394  -0.0307   0.4581   1.0000
   8.333   0.8361   0.06180   0.05214  -0.0274   0.4489   1.0000
   8.417   0.7512   0.07236   0.06255  -0.0291   0.4463   1.0000
   8.500   0.7278   0.07591   0.06606  -0.0295   0.4422   1.0000
   8.583   0.7545   0.07402   0.06425  -0.0283   0.4353   1.0000
   8.667   0.7795   0.07222   0.06252  -0.0270   0.4294   1.0000
   8.750   0.7427   0.07753   0.06776  -0.0281   0.4263   1.0000
   8.833   0.7352   0.07945   0.06968  -0.0282   0.4217   1.0000
   8.917   0.8132   0.07105   0.06147  -0.0244   0.4123   1.0000
   9.000   0.7616   0.07861   0.06892  -0.0265   0.4101   1.0000
   9.083   0.7418   0.08204   0.07232  -0.0272   0.4067   1.0000
   9.167   0.7656   0.08032   0.07068  -0.0259   0.3999   1.0000
   9.250   0.7862   0.07890   0.06931  -0.0245   0.3939   1.0000
   9.333   0.7559   0.08383   0.07418  -0.0260   0.3917   1.0000
   9.417   0.7420   0.08665   0.07699  -0.0266   0.3884   1.0000
   9.500   0.8164   0.07812   0.06865  -0.0219   0.3774   1.0000
   9.583   0.7765   0.08469   0.07515  -0.0242   0.3761   1.0000
   9.667   0.7539   0.08878   0.07918  -0.0255   0.3740   1.0000
   9.750   0.7414   0.09155   0.08194  -0.0262   0.3714   1.0000
   9.833   0.8054   0.08429   0.07485  -0.0218   0.3602   1.0000
   9.917   0.7751   0.08968   0.08018  -0.0238   0.3591   1.0000
  10.000   0.7551   0.09355   0.08402  -0.0251   0.3574   1.0000
  10.083   0.7415   0.09654   0.08698  -0.0259   0.3554   1.0000
  10.167   0.7353   0.09858   0.08902  -0.0264   0.3525   1.0000
  10.250   0.7800   0.09404   0.08461  -0.0231   0.3427   1.0000
  10.333   0.7610   0.09795   0.08848  -0.0245   0.3417   1.0000
  10.417   0.7463   0.10119   0.09170  -0.0257   0.3404   1.0000
  10.500   0.7354   0.10392   0.09442  -0.0266   0.3389   1.0000
  10.583   0.7281   0.10618   0.09668  -0.0272   0.3369   1.0000
  10.667   0.7270   0.10766   0.09817  -0.0274   0.3339   1.0000
  10.750   0.7570   0.10518   0.09576  -0.0250   0.3253   1.0000
  10.833   0.7454   0.10816   0.09872  -0.0261   0.3245   1.0000
  10.917   0.7359   0.11084   0.10140  -0.0271   0.3238   1.0000
  11.000   0.7278   0.11330   0.10386  -0.0279   0.3229   1.0000
  11.083   0.7213   0.11557   0.10612  -0.0287   0.3220   1.0000
  11.167   0.7159   0.11769   0.10825  -0.0294   0.3210   1.0000
  11.250   0.7116   0.11970   0.11027  -0.0300   0.3202   1.0000
  11.333   0.7080   0.12169   0.11226  -0.0307   0.3197   1.0000
  11.417   0.7046   0.12371   0.11428  -0.0314   0.3196   1.0000
  11.500   0.7014   0.12571   0.11629  -0.0320   0.3199   1.0000
  11.583   0.6986   0.12770   0.11829  -0.0327   0.3204   1.0000
  11.667   0.6963   0.12966   0.12026  -0.0334   0.3211   1.0000
  11.750   0.6948   0.13160   0.12220  -0.0341   0.3220   1.0000
  11.833   0.6946   0.13350   0.12412  -0.0347   0.3231   1.0000
  11.917   0.6965   0.13538   0.12602  -0.0353   0.3245   1.0000
  12.000   0.7011   0.13724   0.12790  -0.0357   0.3257   1.0000
  12.083   0.7075   0.13909   0.12979  -0.0361   0.3267   1.0000
  14.667   0.4802   0.16121   0.15283  -0.0263   0.3349   1.0000
  14.750   0.4847   0.16237   0.15401  -0.0264   0.3317   1.0000
  14.833   0.4956   0.16486   0.15652  -0.0265   0.3288   1.0000
  14.917   0.5085   0.16861   0.16027  -0.0269   0.3269   1.0000
  15.000   0.4970   0.16681   0.15848  -0.0270   0.3259   1.0000
